
OS:Version,
  {95ff0bc9-4fd7-42d3-adb0-5a726d6d680b}, !- Handle
  3.7.0;                                  !- Version Identifier

OS:ScheduleTypeLimits,
  {600c2999-e96f-4eb4-8899-0e9f37aa72c7}, !- Handle
  Always On Discrete Limits,              !- Name
  0,                                      !- Lower Limit Value
  1,                                      !- Upper Limit Value
  Discrete,                               !- Numeric Type
  Availability;                           !- Unit Type

OS:ScheduleTypeLimits,
  {09108732-e770-4696-83ad-c376a1beb454}, !- Handle
  MechanicalVentilation,                  !- Name
  0,                                      !- Lower Limit Value
  1,                                      !- Upper Limit Value
  Continuous,                             !- Numeric Type
  Dimensionless;                          !- Unit Type

OS:Rendering:Color,
  {6378dbec-eb36-48ce-bad0-f6c4e6eb1a52}, !- Handle
  Rendering Color 1,                      !- Name
  230,                                    !- Rendering Red Value
  157,                                    !- Rendering Green Value
  120;                                    !- Rendering Blue Value

OS:ScheduleTypeLimits,
  {46639c15-3d9e-445e-bf44-62058e5636d7}, ! Handle
  Fraction,                               ! Name
  0,                                      ! Lower Limit Value
  1,                                      ! Upper Limit Value
  CONTINUOUS;                             ! Numeric Type

OS:ScheduleTypeLimits,
  {115aba64-18e9-477b-9f56-bc49f71a3d65}, !- Handle
  ActivityLevel,                          !- Name
  0,                                      !- Lower Limit Value
  ,                                       !- Upper Limit Value
  Continuous,                             !- Numeric Type
  ActivityLevel;                          !- Unit Type

OS:ThermostatSetpoint:DualSetpoint,
  {4c10e941-222f-4ce6-97c2-167d512784bb}, !- Handle
  189.1-2009 - Office - BreakRoom - CZ1-3 Thermostat, !- Name
  {09614427-a80e-4def-b3c8-4569d9820c87}, !- Heating Setpoint Temperature Schedule Name
  {b0c1894d-c9fc-4037-9dd0-81db953b7a2a}; !- Cooling Setpoint Temperature Schedule Name

OS:Schedule:Ruleset,
  {09614427-a80e-4def-b3c8-4569d9820c87}, ! Handle
  VGP-Montijo HtgSetp,                    ! Name
  {fe175268-292a-4433-a896-b1196b2fabee}, ! Schedule Type Limits Name
  {8882803d-5d69-4a07-a318-9917a000abb6}, ! Default Day Schedule Name
  {d8e08bcc-fb61-400d-8fcc-652931ec5576}, ! Summer Design Day Schedule Name
  {e7c96e76-f302-4674-8a2a-3dc7a341b8cb}; ! Winter Design Day Schedule Name

OS:ScheduleTypeLimits,
  {fe175268-292a-4433-a896-b1196b2fabee}, !- Handle
  Temperature 36,                         !- Name
  ,                                       !- Lower Limit Value
  ,                                       !- Upper Limit Value
  Continuous,                             !- Numeric Type
  Temperature;                            !- Unit Type

OS:Schedule:Day,
  {8882803d-5d69-4a07-a318-9917a000abb6}, ! Handle
  VGP-Montijo HtgSetp Default Schedule,   ! Name
  {fe175268-292a-4433-a896-b1196b2fabee}, ! Schedule Type Limits Name
  ,                                       ! Interpolate to Timestep
  5,                                      !- Hour 1
  0,                                      !- Minute 1
  18,                                     !- Value Until Time 1
  18,                                     !- Hour 2
  0,                                      !- Minute 2
  22,                                     !- Value Until Time 2
  24,                                     !- Hour 3
  0,                                      !- Minute 3
  18;                                     !- Value Until Time 3

OS:Schedule:Day,
  {d8e08bcc-fb61-400d-8fcc-652931ec5576}, ! Handle
  VGP-Montijo HtgSetp Summer Design Day,  ! Name
  {fe175268-292a-4433-a896-b1196b2fabee}, ! Schedule Type Limits Name
  ,                                       ! Interpolate to Timestep
  24,                                     !- Hour 1
  0,                                      !- Minute 1
  20;                                     !- Value Until Time 1

OS:Schedule:Day,
  {e7c96e76-f302-4674-8a2a-3dc7a341b8cb}, ! Handle
  VGP-Montijo HtgSetp Winter Design Day,  ! Name
  {fe175268-292a-4433-a896-b1196b2fabee}, ! Schedule Type Limits Name
  ,                                       ! Interpolate to Timestep
  24,                                     !- Hour 1
  0,                                      !- Minute 1
  20;                                     !- Value Until Time 1

OS:Schedule:Rule,
  {c7f812fa-7446-40ee-b68b-b3a8b51b12e6}, !- Handle
  Office HtgSetp Rule 1,                  !- Name
  {09614427-a80e-4def-b3c8-4569d9820c87}, !- Schedule Ruleset Name
  0,                                      !- Rule Order
  {42a8882f-6fd8-4828-a5b5-47a81c1a7b4b}, !- Day Schedule Name
  Yes,                                    !- Apply Sunday
  No,                                     !- Apply Monday
  No,                                     !- Apply Tuesday
  No,                                     !- Apply Wednesday
  No,                                     !- Apply Thursday
  No,                                     !- Apply Friday
  No,                                     !- Apply Saturday
  DateRange,                              !- Date Specification Type
  1,                                      !- Start Month
  1,                                      !- Start Day
  12,                                     !- End Month
  31;                                     !- End Day

OS:Schedule:Day,
  {42a8882f-6fd8-4828-a5b5-47a81c1a7b4b}, ! Handle
  VGP-Montijo HtgSetp Rule 1 Day Schedule, ! Name
  {fe175268-292a-4433-a896-b1196b2fabee}, ! Schedule Type Limits Name
  ,                                       ! Interpolate to Timestep
  24,                                     !- Hour 1
  0,                                      !- Minute 1
  18;                                     !- Value Until Time 1

OS:Schedule:Ruleset,
  {b0c1894d-c9fc-4037-9dd0-81db953b7a2a}, ! Handle
  VGP-Montijo ClgSetp,                    ! Name
  {39bcb3ad-c249-4e1e-963c-be23295372e4}, ! Schedule Type Limits Name
  {b2d005f8-5eb3-447e-8697-9b31aaa3a2db}, ! Default Day Schedule Name
  {a3605db2-8181-496b-8473-1aa0a642a54f}, ! Summer Design Day Schedule Name
  {e7eb3567-d62b-4ef1-bd1a-6e8dbc046b21}; ! Winter Design Day Schedule Name

OS:ScheduleTypeLimits,
  {39bcb3ad-c249-4e1e-963c-be23295372e4}, !- Handle
  Temperature 37,                         !- Name
  ,                                       !- Lower Limit Value
  ,                                       !- Upper Limit Value
  Continuous,                             !- Numeric Type
  Temperature;                            !- Unit Type

OS:Schedule:Day,
  {b2d005f8-5eb3-447e-8697-9b31aaa3a2db}, ! Handle
  VGP-Montijo ClgSetp Default Schedule,   ! Name
  {39bcb3ad-c249-4e1e-963c-be23295372e4}, ! Schedule Type Limits Name
  ,                                       ! Interpolate to Timestep
  5,                                      !- Hour 1
  0,                                      !- Minute 1
  28,                                     !- Value Until Time 1
  18,                                     !- Hour 2
  0,                                      !- Minute 2
  24,                                     !- Value Until Time 2
  24,                                     !- Hour 3
  0,                                      !- Minute 3
  28;                                     !- Value Until Time 3

OS:Schedule:Day,
  {a3605db2-8181-496b-8473-1aa0a642a54f}, ! Handle
  VGP-Montijo ClgSetp Summer Design Day,  ! Name
  {39bcb3ad-c249-4e1e-963c-be23295372e4}, ! Schedule Type Limits Name
  ,                                       ! Interpolate to Timestep
  5,                                      !- Hour 1
  0,                                      !- Minute 1
  28,                                     !- Value Until Time 1
  18,                                     !- Hour 2
  0,                                      !- Minute 2
  25,                                     !- Value Until Time 2
  24,                                     !- Hour 3
  0,                                      !- Minute 3
  28;                                     !- Value Until Time 3

OS:Schedule:Day,
  {e7eb3567-d62b-4ef1-bd1a-6e8dbc046b21}, ! Handle
  VGP-Montijo ClgSetp Winter Design Day,  ! Name
  {39bcb3ad-c249-4e1e-963c-be23295372e4}, ! Schedule Type Limits Name
  ,                                       ! Interpolate to Timestep
  24,                                     !- Hour 1
  0,                                      !- Minute 1
  28;                                     !- Value Until Time 1

OS:Schedule:Rule,
  {0d632a2f-7030-458d-a605-1c8b22675112}, !- Handle
  VGP-Montijo ClgSetp Rule 1,             !- Name
  {b0c1894d-c9fc-4037-9dd0-81db953b7a2a}, !- Schedule Ruleset Name
  0,                                      !- Rule Order
  {ef8f110c-4e65-4bff-a09f-b7a26ac7ead7}, !- Day Schedule Name
  Yes,                                    !- Apply Sunday
  No,                                     !- Apply Monday
  No,                                     !- Apply Tuesday
  No,                                     !- Apply Wednesday
  No,                                     !- Apply Thursday
  No,                                     !- Apply Friday
  No,                                     !- Apply Saturday
  DateRange,                              !- Date Specification Type
  1,                                      !- Start Month
  1,                                      !- Start Day
  12,                                     !- End Month
  31;                                     !- End Day

OS:Schedule:Day,
  {ef8f110c-4e65-4bff-a09f-b7a26ac7ead7}, ! Handle
  Medium Office ClgSetp Rule 1 Day Schedule, ! Name
  {39bcb3ad-c249-4e1e-963c-be23295372e4}, ! Schedule Type Limits Name
  ,                                       ! Interpolate to Timestep
  24,                                     !- Hour 1
  0,                                      !- Minute 1
  28;                                     !- Value Until Time 1

OS:Rendering:Color,
  {ba1f766f-181c-458c-9ef5-bb86302e4a6d}, !- Handle
  Rendering Color 2,                      !- Name
  120,                                    !- Rendering Red Value
  230,                                    !- Rendering Green Value
  199;                                    !- Rendering Blue Value

OS:ThermostatSetpoint:DualSetpoint,
  {9e972440-d6e2-4d12-af61-30e49f26d1f6}, !- Handle
  189.1-2009 - Office - ClosedOffice - CZ1-3 Thermostat, !- Name
  {09614427-a80e-4def-b3c8-4569d9820c87}, !- Heating Setpoint Temperature Schedule Name
  {b0c1894d-c9fc-4037-9dd0-81db953b7a2a}; !- Cooling Setpoint Temperature Schedule Name

OS:Rendering:Color,
  {6ead6b3f-309f-49fb-902f-df18e88201ae}, !- Handle
  Rendering Color 3,                      !- Name
  230,                                    !- Rendering Red Value
  196,                                    !- Rendering Green Value
  120;                                    !- Rendering Blue Value

OS:ThermostatSetpoint:DualSetpoint,
  {7691aa3c-0f51-4b50-af2b-5cfffd865bd1}, !- Handle
  189.1-2009 - Office - Conference - CZ1-3 Thermostat, !- Name
  {09614427-a80e-4def-b3c8-4569d9820c87}, !- Heating Setpoint Temperature Schedule Name
  {b0c1894d-c9fc-4037-9dd0-81db953b7a2a}; !- Cooling Setpoint Temperature Schedule Name

OS:Rendering:Color,
  {f2532a3e-1ca1-4db9-998c-227431dfa48e}, !- Handle
  Rendering Color 4,                      !- Name
  169,                                    !- Rendering Red Value
  31,                                     !- Rendering Green Value
  31;                                     !- Rendering Blue Value

OS:ThermostatSetpoint:DualSetpoint,
  {f1f0200e-b39d-4793-8cb4-2c307199de15}, !- Handle
  189.1-2009 - Office - Corridor - CZ1-3 Thermostat, !- Name
  {09614427-a80e-4def-b3c8-4569d9820c87}, !- Heating Setpoint Temperature Schedule Name
  {b0c1894d-c9fc-4037-9dd0-81db953b7a2a}; !- Cooling Setpoint Temperature Schedule Name

OS:Rendering:Color,
  {1f1f3d07-6d31-4834-9dcb-30d44551a6f6}, !- Handle
  Rendering Color 5,                      !- Name
  41,                                     !- Rendering Red Value
  31,                                     !- Rendering Green Value
  169;                                    !- Rendering Blue Value

OS:ThermostatSetpoint:DualSetpoint,
  {959d0b30-4f5d-43cc-a32d-27b3efb6d237}, !- Handle
  189.1-2009 - Office - Elec/MechRoom - CZ1-3 Thermostat, !- Name
  {09614427-a80e-4def-b3c8-4569d9820c87}, !- Heating Setpoint Temperature Schedule Name
  {b0c1894d-c9fc-4037-9dd0-81db953b7a2a}; !- Cooling Setpoint Temperature Schedule Name

OS:Rendering:Color,
  {e45237c0-fb92-4607-bd04-df09fc52bb34}, !- Handle
  Rendering Color 6,                      !- Name
  41,                                     !- Rendering Red Value
  31,                                     !- Rendering Green Value
  169;                                    !- Rendering Blue Value

OS:ThermostatSetpoint:DualSetpoint,
  {c45f9b47-32fa-429c-9130-e959ffd40036}, !- Handle
  189.1-2009 - Office - IT_Room - CZ1-3 Thermostat, !- Name
  {09614427-a80e-4def-b3c8-4569d9820c87}, !- Heating Setpoint Temperature Schedule Name
  {b0c1894d-c9fc-4037-9dd0-81db953b7a2a}; !- Cooling Setpoint Temperature Schedule Name

OS:Rendering:Color,
  {f2ffe214-9259-4b2f-8e48-35543d5fba21}, !- Handle
  Rendering Color 7,                      !- Name
  230,                                    !- Rendering Red Value
  157,                                    !- Rendering Green Value
  120;                                    !- Rendering Blue Value

OS:ThermostatSetpoint:DualSetpoint,
  {d3694f32-dbe7-4f34-8a96-56cd4db5d3ce}, !- Handle
  189.1-2009 - Office - Lobby - CZ1-3 Thermostat, !- Name
  {09614427-a80e-4def-b3c8-4569d9820c87}, !- Heating Setpoint Temperature Schedule Name
  {b0c1894d-c9fc-4037-9dd0-81db953b7a2a}; !- Cooling Setpoint Temperature Schedule Name

OS:Rendering:Color,
  {a2c602da-91b1-4db5-892c-de58e18075ce}, !- Handle
  Rendering Color 8,                      !- Name
  120,                                    !- Rendering Red Value
  230,                                    !- Rendering Green Value
  199;                                    !- Rendering Blue Value

OS:ThermostatSetpoint:DualSetpoint,
  {fe91686e-dd84-4b38-b5b8-54dfcf8560ce}, !- Handle
  189.1-2009 - Office - OpenOffice - CZ1-3 Thermostat, !- Name
  {09614427-a80e-4def-b3c8-4569d9820c87}, !- Heating Setpoint Temperature Schedule Name
  {b0c1894d-c9fc-4037-9dd0-81db953b7a2a}; !- Cooling Setpoint Temperature Schedule Name

OS:Building,
  {161a51f0-9700-4aa1-8ba8-f2513d0eecae}, !- Handle
  VGP-Montijo,                            !- Name
  ,                                       !- Building Sector Type
  ,                                       !- North Axis {deg}
  ,                                       !- Nominal Floor to Floor Height {m}
  ,                                       !- Space Type Name
  {858f631f-d20c-46f1-b7b6-2b5edc8c5f13}, !- Default Construction Set Name
  ,                                       !- Default Schedule Set Name
  ,                                       !- Standards Number of Stories
  ,                                       !- Standards Number of Above Ground Stories
  90.1-2016,                              !- Standards Template
  Warehouse,                              !- Standards Building Type
  ,                                       !- Standards Number of Living Units
  ,                                       !- Relocatable
  ;                                       !- Nominal Floor to Ceiling Height {m}

OS:Rendering:Color,
  {15265381-e5e1-46ed-aa83-2328823b2654}, !- Handle
  Rendering Color 9,                      !- Name
  41,                                     !- Rendering Red Value
  31,                                     !- Rendering Green Value
  169;                                    !- Rendering Blue Value

OS:ThermostatSetpoint:DualSetpoint,
  {6ee3f455-6c41-4bb4-b9a1-f1f1b61abb75}, !- Handle
  189.1-2009 - Office - PrintRoom - CZ1-3 Thermostat, !- Name
  {09614427-a80e-4def-b3c8-4569d9820c87}, !- Heating Setpoint Temperature Schedule Name
  {b0c1894d-c9fc-4037-9dd0-81db953b7a2a}; !- Cooling Setpoint Temperature Schedule Name

OS:Rendering:Color,
  {dd022378-ee6c-48ca-9a39-68a7adc126bd}, !- Handle
  Rendering Color 10,                     !- Name
  169,                                    !- Rendering Red Value
  169,                                    !- Rendering Green Value
  31;                                     !- Rendering Blue Value

OS:ThermostatSetpoint:DualSetpoint,
  {5d77807c-6525-4ff5-96b0-3bae48c5bf5e}, !- Handle
  189.1-2009 - Office - Restroom - CZ1-3 Thermostat, !- Name
  {09614427-a80e-4def-b3c8-4569d9820c87}, !- Heating Setpoint Temperature Schedule Name
  {b0c1894d-c9fc-4037-9dd0-81db953b7a2a}; !- Cooling Setpoint Temperature Schedule Name

OS:Rendering:Color,
  {a3d4d349-0de7-4e4f-ac21-f62447e12181}, !- Handle
  Rendering Color 11,                     !- Name
  230,                                    !- Rendering Red Value
  157,                                    !- Rendering Green Value
  120;                                    !- Rendering Blue Value

OS:ThermostatSetpoint:DualSetpoint,
  {e34a4858-8ca9-4b53-8502-c5073f2911c3}, !- Handle
  189.1-2009 - Office - Stair - CZ1-3 Thermostat, !- Name
  {09614427-a80e-4def-b3c8-4569d9820c87}, !- Heating Setpoint Temperature Schedule Name
  {b0c1894d-c9fc-4037-9dd0-81db953b7a2a}; !- Cooling Setpoint Temperature Schedule Name

OS:Rendering:Color,
  {abf602e1-5689-4887-bc4d-e6f2fc2451e4}, !- Handle
  Rendering Color 12,                     !- Name
  120,                                    !- Rendering Red Value
  149,                                    !- Rendering Green Value
  230;                                    !- Rendering Blue Value

OS:ThermostatSetpoint:DualSetpoint,
  {7666b674-d1ef-4103-b26d-0c8dbbbfc8b7}, !- Handle
  189.1-2009 - Office - Storage - CZ1-3 Thermostat, !- Name
  {09614427-a80e-4def-b3c8-4569d9820c87}, !- Heating Setpoint Temperature Schedule Name
  {b0c1894d-c9fc-4037-9dd0-81db953b7a2a}; !- Cooling Setpoint Temperature Schedule Name

OS:Rendering:Color,
  {5d8d43b8-7e07-431a-89e4-e65ffc0a4f50}, !- Handle
  Rendering Color 13,                     !- Name
  230,                                    !- Rendering Red Value
  157,                                    !- Rendering Green Value
  120;                                    !- Rendering Blue Value

OS:ThermostatSetpoint:DualSetpoint,
  {0d80e673-9242-4a06-b05d-982eeaeca477}, !- Handle
  189.1-2009 - Office - Vending - CZ1-3 Thermostat, !- Name
  {09614427-a80e-4def-b3c8-4569d9820c87}, !- Heating Setpoint Temperature Schedule Name
  {b0c1894d-c9fc-4037-9dd0-81db953b7a2a}; !- Cooling Setpoint Temperature Schedule Name

OS:Rendering:Color,
  {ae6193b8-9d13-45ab-a3c0-13ea1b2d2000}, !- Handle
  Rendering Color 14,                     !- Name
  120,                                    !- Rendering Red Value
  230,                                    !- Rendering Green Value
  199;                                    !- Rendering Blue Value

OS:ScheduleTypeLimits,
  {c50de33e-2a31-403b-929e-8d1c42a993ef}, !- Handle
  Fractional,                             !- Name
  0,                                      !- Lower Limit Value
  1,                                      !- Upper Limit Value
  Continuous;                             !- Numeric Type

OS:ScheduleTypeLimits,
  {db77c810-6d42-49c7-966e-9a928067165f}, !- Handle
  ActivityLevel 5,                        !- Name
  0,                                      !- Lower Limit Value
  ,                                       !- Upper Limit Value
  Continuous,                             !- Numeric Type
  ActivityLevel;                          !- Unit Type

OS:ThermostatSetpoint:DualSetpoint,
  {2e0d8e87-f663-4cc4-95e5-e3450e3ad2f7}, !- Handle
  189.1-2009 - Office - WholeBuilding - Lg Office - CZ1-3 Thermostat, !- Name
  ,                                       !- Heating Setpoint Temperature Schedule Name
  ;                                       !- Cooling Setpoint Temperature Schedule Name

OS:ScheduleTypeLimits,
  {a9dadb87-2284-4037-ada9-d8ba03d45fc3}, !- Handle
  Temperature 3,                          !- Name
  ,                                       !- Lower Limit Value
  ,                                       !- Upper Limit Value
  Continuous,                             !- Numeric Type
  Temperature;                            !- Unit Type

OS:ScheduleTypeLimits,
  {41c7ee57-bfc4-48e2-9eb9-df0001ab88f0}, !- Handle
  Temperature 5,                          !- Name
  ,                                       !- Lower Limit Value
  ,                                       !- Upper Limit Value
  Continuous,                             !- Numeric Type
  Temperature;                            !- Unit Type

OS:Rendering:Color,
  {5975c023-a3df-4e88-aa90-8dff615de763}, !- Handle
  Rendering Color 15,                     !- Name
  120,                                    !- Rendering Red Value
  230,                                    !- Rendering Green Value
  199;                                    !- Rendering Blue Value

OS:ScheduleTypeLimits,
  {724e0a25-cd51-4aef-b8ed-bd0074db9d88}, !- Handle
  ActivityLevel 13,                       !- Name
  0,                                      !- Lower Limit Value
  ,                                       !- Upper Limit Value
  Continuous,                             !- Numeric Type
  ActivityLevel;                          !- Unit Type

OS:ThermostatSetpoint:DualSetpoint,
  {6f2426c5-ac93-4ed3-8290-6cba3d44eb04}, !- Handle
  189.1-2009 - Office - WholeBuilding - Md Office - CZ1-3 Thermostat, !- Name
  {09614427-a80e-4def-b3c8-4569d9820c87}, !- Heating Setpoint Temperature Schedule Name
  {b0c1894d-c9fc-4037-9dd0-81db953b7a2a}; !- Cooling Setpoint Temperature Schedule Name

OS:Rendering:Color,
  {6b14889b-0e4f-4f9c-b271-99b0da5e1a5b}, !- Handle
  Rendering Color 16,                     !- Name
  120,                                    !- Rendering Red Value
  230,                                    !- Rendering Green Value
  199;                                    !- Rendering Blue Value

OS:ScheduleTypeLimits,
  {914fb107-53c7-4ce8-8b3f-d09fe122736e}, !- Handle
  ActivityLevel 12,                       !- Name
  0,                                      !- Lower Limit Value
  ,                                       !- Upper Limit Value
  Continuous,                             !- Numeric Type
  ActivityLevel;                          !- Unit Type

OS:ThermostatSetpoint:DualSetpoint,
  {e106c6fa-6132-4f38-a43a-32fb3807df79}, !- Handle
  189.1-2009 - Office - WholeBuilding - Sm Office - CZ1-3 Thermostat, !- Name
  ,                                       !- Heating Setpoint Temperature Schedule Name
  ;                                       !- Cooling Setpoint Temperature Schedule Name

OS:ScheduleTypeLimits,
  {d1762d25-1396-48e1-8abb-ba176787040b}, !- Handle
  Temperature 11,                         !- Name
  ,                                       !- Lower Limit Value
  ,                                       !- Upper Limit Value
  Continuous,                             !- Numeric Type
  Temperature;                            !- Unit Type

OS:ScheduleTypeLimits,
  {53148dd4-84bd-4672-a23f-d1e6e10976bd}, !- Handle
  Temperature 4,                          !- Name
  ,                                       !- Lower Limit Value
  ,                                       !- Upper Limit Value
  Continuous,                             !- Numeric Type
  Temperature;                            !- Unit Type

OS:Rendering:Color,
  {1ed40ce3-764d-4f1c-9541-cc382456360f}, !- Handle
  Rendering Color 17,                     !- Name
  230,                                    !- Rendering Red Value
  157,                                    !- Rendering Green Value
  120;                                    !- Rendering Blue Value

OS:ThermostatSetpoint:DualSetpoint,
  {b330c956-5afa-4922-8d3f-b3070ab83a37}, !- Handle
  189.1-2009 - Office - BreakRoom - CZ4-8 Thermostat, !- Name
  {09614427-a80e-4def-b3c8-4569d9820c87}, !- Heating Setpoint Temperature Schedule Name
  {b0c1894d-c9fc-4037-9dd0-81db953b7a2a}; !- Cooling Setpoint Temperature Schedule Name

OS:Rendering:Color,
  {5a97a52e-68b4-4e2f-81c9-ef166edd12b7}, !- Handle
  Rendering Color 18,                     !- Name
  120,                                    !- Rendering Red Value
  230,                                    !- Rendering Green Value
  199;                                    !- Rendering Blue Value

OS:ThermostatSetpoint:DualSetpoint,
  {d1c38ff6-8d99-4d27-ab46-c02cc816d077}, !- Handle
  189.1-2009 - Office - ClosedOffice - CZ4-8 Thermostat, !- Name
  {09614427-a80e-4def-b3c8-4569d9820c87}, !- Heating Setpoint Temperature Schedule Name
  {b0c1894d-c9fc-4037-9dd0-81db953b7a2a}; !- Cooling Setpoint Temperature Schedule Name

OS:Rendering:Color,
  {9db44ca4-e829-4339-9e20-ab6d324a2f13}, !- Handle
  Rendering Color 19,                     !- Name
  230,                                    !- Rendering Red Value
  196,                                    !- Rendering Green Value
  120;                                    !- Rendering Blue Value

OS:ThermostatSetpoint:DualSetpoint,
  {f8de7191-33ed-473c-8f59-8c6ea2424c7f}, !- Handle
  189.1-2009 - Office - Conference - CZ4-8 Thermostat, !- Name
  {09614427-a80e-4def-b3c8-4569d9820c87}, !- Heating Setpoint Temperature Schedule Name
  {b0c1894d-c9fc-4037-9dd0-81db953b7a2a}; !- Cooling Setpoint Temperature Schedule Name

OS:Rendering:Color,
  {443e22e7-6eeb-4aff-b50d-5194717eb0c9}, !- Handle
  Rendering Color 20,                     !- Name
  169,                                    !- Rendering Red Value
  31,                                     !- Rendering Green Value
  31;                                     !- Rendering Blue Value

OS:ThermostatSetpoint:DualSetpoint,
  {157db862-425f-4bcd-bcf1-8f588d901084}, !- Handle
  189.1-2009 - Office - Corridor - CZ4-8 Thermostat, !- Name
  {09614427-a80e-4def-b3c8-4569d9820c87}, !- Heating Setpoint Temperature Schedule Name
  {b0c1894d-c9fc-4037-9dd0-81db953b7a2a}; !- Cooling Setpoint Temperature Schedule Name

OS:Rendering:Color,
  {6b853132-842e-4b4c-87a0-08e9ec11a8b4}, !- Handle
  Rendering Color 21,                     !- Name
  41,                                     !- Rendering Red Value
  31,                                     !- Rendering Green Value
  169;                                    !- Rendering Blue Value

OS:ThermostatSetpoint:DualSetpoint,
  {929c0a7c-5868-4683-8d39-a99b83f26e49}, !- Handle
  189.1-2009 - Office - Elec/MechRoom - CZ4-8 Thermostat, !- Name
  {09614427-a80e-4def-b3c8-4569d9820c87}, !- Heating Setpoint Temperature Schedule Name
  {b0c1894d-c9fc-4037-9dd0-81db953b7a2a}; !- Cooling Setpoint Temperature Schedule Name

OS:Rendering:Color,
  {e316459c-6c67-447f-b244-fafe96fcff21}, !- Handle
  Rendering Color 22,                     !- Name
  41,                                     !- Rendering Red Value
  31,                                     !- Rendering Green Value
  169;                                    !- Rendering Blue Value

OS:ThermostatSetpoint:DualSetpoint,
  {593dc58d-f0ae-49ef-a306-57156de5be3b}, !- Handle
  189.1-2009 - Office - IT_Room - CZ4-8 Thermostat, !- Name
  {09614427-a80e-4def-b3c8-4569d9820c87}, !- Heating Setpoint Temperature Schedule Name
  {b0c1894d-c9fc-4037-9dd0-81db953b7a2a}; !- Cooling Setpoint Temperature Schedule Name

OS:Rendering:Color,
  {f005d03e-0b41-4986-84d0-fadf1332ea93}, !- Handle
  Rendering Color 23,                     !- Name
  230,                                    !- Rendering Red Value
  157,                                    !- Rendering Green Value
  120;                                    !- Rendering Blue Value

OS:ThermostatSetpoint:DualSetpoint,
  {a97d7ef8-6212-4a69-81a4-1551c15d00f3}, !- Handle
  189.1-2009 - Office - Lobby - CZ4-8 Thermostat, !- Name
  {09614427-a80e-4def-b3c8-4569d9820c87}, !- Heating Setpoint Temperature Schedule Name
  {b0c1894d-c9fc-4037-9dd0-81db953b7a2a}; !- Cooling Setpoint Temperature Schedule Name

OS:Rendering:Color,
  {3f9553ae-707b-4ca2-9ad4-508d4a337b65}, !- Handle
  Rendering Color 24,                     !- Name
  120,                                    !- Rendering Red Value
  230,                                    !- Rendering Green Value
  199;                                    !- Rendering Blue Value

OS:ThermostatSetpoint:DualSetpoint,
  {567e9ddc-61da-4a32-8a3c-9ca69afc4cd8}, !- Handle
  189.1-2009 - Office - OpenOffice - CZ4-8 Thermostat, !- Name
  {09614427-a80e-4def-b3c8-4569d9820c87}, !- Heating Setpoint Temperature Schedule Name
  {b0c1894d-c9fc-4037-9dd0-81db953b7a2a}; !- Cooling Setpoint Temperature Schedule Name

OS:Rendering:Color,
  {49ec93b0-9819-4bc1-abb0-0362d9489542}, !- Handle
  Rendering Color 25,                     !- Name
  41,                                     !- Rendering Red Value
  31,                                     !- Rendering Green Value
  169;                                    !- Rendering Blue Value

OS:ThermostatSetpoint:DualSetpoint,