
OS:Version,
  {4f77b5d9-89cb-4fea-8ecd-34c6fcd104a7}, !- Handle
  3.7.0;                                  !- Version Identifier

OS:Schedule:Constant,
  {9617ad1c-4ad9-419a-a4ae-146a6145e406}, !- Handle
  Always On Discrete,                     !- Name
  {d171cc42-048a-4657-b0b2-4794a80cf358}, !- Schedule Type Limits Name
  1;                                      !- Value

OS:ScheduleTypeLimits,
  {d171cc42-048a-4657-b0b2-4794a80cf358}, !- Handle
  Always On Discrete Limits,              !- Name
  0,                                      !- Lower Limit Value
  1,                                      !- Upper Limit Value
  Discrete,                               !- Numeric Type
  Availability;                           !- Unit Type

OS:ScheduleTypeLimits,
  {115aba64-18e9-477b-9f56-bc49f71a3d65}, !- Handle
  ActivityLevel,                          !- Name
  0,                                      !- Lower Limit Value
  ,                                       !- Upper Limit Value
  Continuous,                             !- Numeric Type
  ActivityLevel;                          !- Unit Type

OS:ScheduleTypeLimits,
  {fe175268-292a-4433-a896-b1196b2fabee}, !- Handle
  Temperature 36,                         !- Name
  ,                                       !- Lower Limit Value
  ,                                       !- Upper Limit Value
  Continuous,                             !- Numeric Type
  Temperature;                            !- Unit Type

OS:ScheduleTypeLimits,
  {39bcb3ad-c249-4e1e-963c-be23295372e4}, !- Handle
  Temperature 37,                         !- Name
  ,                                       !- Lower Limit Value
  ,                                       !- Upper Limit Value
  Continuous,                             !- Numeric Type
  Temperature;                            !- Unit Type

OS:Building,
  {161a51f0-9700-4aa1-8ba8-f2513d0eecae}, !- Handle
  R2F-Office-Hub,                         !- Name
  ,                                       !- Building Sector Type
  ,                                       !- North Axis {deg}
  ,                                       !- Nominal Floor to Floor Height {m}
  {3ad48622-aad8-401a-b67b-8e33bb68a931}, !- Space Type Name
  {f816ce4d-90c6-453a-9009-56cd96f3be92}, !- Default Construction Set Name
  ,                                       !- Default Schedule Set Name
  ,                                       !- Standards Number of Stories
  ,                                       !- Standards Number of Above Ground Stories
  90.1-2016,                              !- Standards Template
  Office,                                 !- Standards Building Type
  ,                                       !- Standards Number of Living Units
  ,                                       !- Relocatable
  ;                                       !- Nominal Floor to Ceiling Height {m}

OS:ScheduleTypeLimits,
  {c50de33e-2a31-403b-929e-8d1c42a993ef}, !- Handle
  Fractional,                             !- Name
  0,                                      !- Lower Limit Value
  1,                                      !- Upper Limit Value
  Continuous;                             !- Numeric Type

OS:ScheduleTypeLimits,
  {d1762d25-1396-48e1-8abb-ba176787040b}, !- Handle
  Temperature 11,                         !- Name
  ,                                       !- Lower Limit Value
  ,                                       !- Upper Limit Value
  Continuous,                             !- Numeric Type
  Temperature;                            !- Unit Type

OS:Material,
  {7311a74e-33cf-47e9-a28c-a9a6c74f4083}, !- Handle
  MAT-CC05 4 HW CONCRETE,                 !- Name
  Rough,                                  !- Roughness
  0.1016,                                 !- Thickness {m}
  1.311,                                  !- Conductivity {W/m-K}
  2240,                                   !- Density {kg/m3}
  836.800000000001,                       !- Specific Heat {J/kg-K}
  0.9,                                    !- Thermal Absorptance
  0.85,                                   !- Solar Absorptance
  0.85;                                   !- Visible Absorptance

OS:StandardsInformation:Material,
  {b86a039d-4ab4-4e94-aec8-6e50a3e39fef}, !- Handle
  {7311a74e-33cf-47e9-a28c-a9a6c74f4083}; !- Material Name

OS:Material:NoMass,
  {f9d8d3d0-67dd-44ee-b650-ac57d9c4fdc9}, !- Handle
  CP02 CARPET PAD,                        !- Name
  Smooth,                                 !- Roughness
  0.1,                                    !- Thermal Resistance {m2-K/W}
  0.9,                                    !- Thermal Absorptance
  0.8,                                    !- Solar Absorptance
  0.8;                                    !- Visible Absorptance

OS:StandardsInformation:Material,
  {c379f087-1159-45ad-a5ee-77aeed34b608}, !- Handle
  {f9d8d3d0-67dd-44ee-b650-ac57d9c4fdc9}; !- Material Name

OS:Material,
  {8850cc38-8245-483b-8e4e-5b6f1e5b6292}, !- Handle
  G01a 19mm gypsum board,                 !- Name
  MediumSmooth,                           !- Roughness
  0.019,                                  !- Thickness {m}
  0.16,                                   !- Conductivity {W/m-K}
  800,                                    !- Density {kg/m3}
  1090,                                   !- Specific Heat {J/kg-K}
  0.9,                                    !- Thermal Absorptance
  0.4,                                    !- Solar Absorptance
  0.4;                                    !- Visible Absorptance

OS:StandardsInformation:Material,
  {cf820310-55e8-41e7-88e3-dbd28419050f}, !- Handle
  {8850cc38-8245-483b-8e4e-5b6f1e5b6292}; !- Material Name

OS:Material:AirGap,
  {d1f8070f-6ca4-4646-a468-2ea72351c34f}, !- Handle
  F04 Wall air space resistance,          !- Name
  0.15;                                   !- Thermal Resistance {m2-K/W}

OS:StandardsInformation:Material,
  {8d2ea389-7bd9-4546-ae34-6680cbe58334}, !- Handle
  {d1f8070f-6ca4-4646-a468-2ea72351c34f}; !- Material Name

OS:WindowMaterial:Glazing,
  {32f534d4-997e-48dd-9996-adc31dca1449}, !- Handle
  Clear 3mm,                              !- Name
  SpectralAverage,                        !- Optical Data Type
  ,                                       !- Window Glass Spectral Data Set Name
  0.00299999999999999,                    !- Thickness {m}
  0.837,                                  !- Solar Transmittance at Normal Incidence
  0.075,                                  !- Front Side Solar Reflectance at Normal Incidence
  0,                                      !- Back Side Solar Reflectance at Normal Incidence
  0.898,                                  !- Visible Transmittance at Normal Incidence
  0.081,                                  !- Front Side Visible Reflectance at Normal Incidence
  0,                                      !- Back Side Visible Reflectance at Normal Incidence
  0,                                      !- Infrared Transmittance at Normal Incidence
  0.84,                                   !- Front Side Infrared Hemispherical Emissivity
  0.84,                                   !- Back Side Infrared Hemispherical Emissivity
  0.9,                                    !- Conductivity {W/m-K}
  1,                                      !- Dirt Correction Factor for Solar and Visible Transmittance
  No;                                     !- Solar Diffusing

OS:StandardsInformation:Material,
  {0f9193bf-9f04-461d-997b-ca2cb6f9e99b}, !- Handle
  {32f534d4-997e-48dd-9996-adc31dca1449}; !- Material Name

OS:Material,
  {20dd75fb-bb93-4254-b788-10a83a075663}, !- Handle
  G05 25mm wood,                          !- Name
  MediumSmooth,                           !- Roughness
  0.0254,                                 !- Thickness {m}
  0.15,                                   !- Conductivity {W/m-K}
  608,                                    !- Density {kg/m3}
  1630,                                   !- Specific Heat {J/kg-K}
  0.9,                                    !- Thermal Absorptance
  0.5,                                    !- Solar Absorptance
  0.5;                                    !- Visible Absorptance

OS:StandardsInformation:Material,
  {a7209dda-e47f-4988-b30d-a79d2ce9f3c0}, !- Handle
  {20dd75fb-bb93-4254-b788-10a83a075663}; !- Material Name

OS:Construction:AirBoundary,
  {c2015e14-8a99-41b4-a8b9-ca08a758e5b5}, !- Handle
  Air Wall,                               !- Name
  ,                                       !- Air Exchange Method
  0,                                      !- Simple Mixing Air Changes per Hour {1/hr}
  ,                                       !- Simple Mixing Schedule Name
  {e0fbd229-e816-4e8a-89ce-3a29e07de6c0}; !- Surface Rendering Name

OS:Site,
  {67954095-e568-4057-a467-6d726fa7832a}, !- Handle
  Mocopulli.AP,                           !- Name
  -42.333,                                !- Latitude {deg}
  -73.717,                                !- Longitude {deg}
  -4,                                     !- Time Zone {hr}
  160,                                    !- Elevation {m}
  ;                                       !- Terrain

OS:YearDescription,
  {ced9d852-3dbd-4e6c-ade7-1e572711c3f2}, !- Handle
  ,                                       !- Calendar Year
  Sunday;                                 !- Day of Week for Start Day

OS:ClimateZones,
  {f9298a12-fa75-446c-a6a6-301b9e4dc7b8}, !- Handle
  ASHRAE,                                 !- Climate Zone Institution Name 1
  ANSI/ASHRAE Standard 169,               !- Climate Zone Document Name 1
  2006,                                   !- Climate Zone Document Year 1
  4A,                                     !- Climate Zone Value 1
  CEC,                                    !- Climate Zone Institution Name 2
  California Climate Zone Descriptions,   !- Climate Zone Document Name 2
  1995,                                   !- Climate Zone Document Year 2
  ;                                       !- Climate Zone Value 2

OS:LifeCycleCost:Parameters,
  {fb618376-732f-4376-831c-e5bee8e3ceba}, !- Handle
  FEMP,                                   !- Analysis Type
  ,                                       !- Discounting Convention
  ,                                       !- Inflation Approach
  ,                                       !- Real Discount Rate
  ,                                       !- Nominal Discount Rate
  ,                                       !- Inflation
  ,                                       !- Base Date Month
  ,                                       !- Base Date Year
  ,                                       !- Service Date Month
  ,                                       !- Service Date Year
  ,                                       !- Length of Study Period in Years
  ,                                       !- Tax Rate
  ,                                       !- Depreciation Method
  Yes;                                    !- Use NIST Fuel Escalation Rates

OS:Facility,
  {67aa9559-41cc-4015-a2b3-ee95a9bcd8ad}; !- Handle

OS:StandardsInformation:Construction,
  {dc1dbb9e-e38d-40a9-a0d7-6dfda00779c4}, !- Handle
  {c2015e14-8a99-41b4-a8b9-ca08a758e5b5}; !- Construction Name

OS:StandardsInformation:Material,
  {05225216-2b25-4f29-8135-2765309693d9}, !- Handle
  ;                                       !- Material Name

OS:Rendering:Color,
  {e0fbd229-e816-4e8a-89ce-3a29e07de6c0}, !- Handle
  Rendering Color 33,                     !- Name
  148,                                    !- Rendering Red Value
  211,                                    !- Rendering Green Value
  0;                                      !- Rendering Blue Value

OS:Rendering:Color,
  {90937638-888b-468e-82be-b8c6f9587998}, !- Handle
  Rendering Color 55,                     !- Name
  0,                                      !- Rendering Red Value
  139,                                    !- Rendering Green Value
  0;                                      !- Rendering Blue Value

OS:BuildingStory,
  {12a60144-f919-41a7-bb6a-f998912401f4}, !- Handle
  N00,                                    !- Name
  0,                                      !- Nominal Z Coordinate {m}
  3.2,                                    !- Nominal Floor to Floor Height {m}
  ,                                       !- Default Construction Set Name
  ,                                       !- Default Schedule Set Name
  {90937638-888b-468e-82be-b8c6f9587998}, !- Group Rendering Name
  ;                                       !- Nominal Floor to Ceiling Height {m}

OS:Space,
  {b7855f66-1614-4493-adb8-946f184a6319}, !- Handle
  0.01-Lobby,                             !- Name
  {db8a2626-92d3-4c0c-8ff1-b648c72c153d}, !- Space Type Name
  ,                                       !- Default Construction Set Name
  ,                                       !- Default Schedule Set Name
  -0,                                     !- Direction of Relative North {deg}
  0,                                      !- X Origin {m}
  9.955,                                  !- Y Origin {m}
  0,                                      !- Z Origin {m}
  {12a60144-f919-41a7-bb6a-f998912401f4}, !- Building Story Name
  {3e6d8fd9-1cd2-4cf4-b7ff-d5ecb54633f8}, !- Thermal Zone Name
  ,                                       !- Part of Total Floor Area
  {f3efb9f3-97d2-42d8-ada0-1e3ca3eea3d5}, !- Design Specification Outdoor Air Object Name
  ,                                       !- Building Unit Name
  207.2,                                  !- Volume {m3}
  2.8,                                    !- Ceiling Height {m}
  74;                                     !- Floor Area {m2}

OS:Surface,
  {56041c5f-d8b8-4cb4-abc2-90a9c22e2a63}, !- Handle
  0.01-Lobby_Floor_Ground_1,              !- Name
  Floor,                                  !- Surface Type
  ,                                       !- Construction Name
  {b7855f66-1614-4493-adb8-946f184a6319}, !- Space Name
  Ground,                                 !- Outside Boundary Condition
  ,                                       !- Outside Boundary Condition Object
  NoSun,                                  !- Sun Exposure
  NoWind,                                 !- Wind Exposure
  ,                                       !- View Factor to Ground
  ,                                       !- Number of Vertices
  7.9, 0, 0,                              !- X,Y,Z Vertex 1 {m}
  7.9, -2.055, 0,                         !- X,Y,Z Vertex 2 {m}
  12.7, -2.055, 0,                        !- X,Y,Z Vertex 3 {m}
  12.7, -9.955, 0,                        !- X,Y,Z Vertex 4 {m}
  5.05, -9.955, 0,                        !- X,Y,Z Vertex 5 {m}
  5.05, -4.755, 0,                        !- X,Y,Z Vertex 6 {m}
  0, -4.75500000000001, 0,                !- X,Y,Z Vertex 7 {m}
  0, 0, 0;                                !- X,Y,Z Vertex 8 {m}

OS:Surface,
  {896622a0-6800-4ea2-a340-8188735b3ed5}, !- Handle
  0.01-Lobby_Wall_0.11-Office_1,          !- Name
  Wall,                                   !- Surface Type
  ,                                       !- Construction Name
  {b7855f66-1614-4493-adb8-946f184a6319}, !- Space Name
  Surface,                                !- Outside Boundary Condition
  {c48d5058-241d-48a3-b464-55ba8ca613f0}, !- Outside Boundary Condition Object
  NoSun,                                  !- Sun Exposure
  NoWind,                                 !- Wind Exposure
  ,                                       !- View Factor to Ground
  ,                                       !- Number of Vertices
  5.05, 0, 3.2,                           !- X,Y,Z Vertex 1 {m}
  5.05, 0, 0,                             !- X,Y,Z Vertex 2 {m}
  0, 0, 0,                                !- X,Y,Z Vertex 3 {m}
  0, 0, 3.2;                              !- X,Y,Z Vertex 4 {m}

OS:Surface,
  {02414895-227c-4008-a4b4-c397492d24b6}, !- Handle
  0.01-Lobby_Wall_0.02-Circulations_1,    !- Name
  Wall,                                   !- Surface Type
  {c2015e14-8a99-41b4-a8b9-ca08a758e5b5}, !- Construction Name
  {b7855f66-1614-4493-adb8-946f184a6319}, !- Space Name
  Surface,                                !- Outside Boundary Condition
  {1afbaa99-6293-427e-a999-76bf8355a1b1}, !- Outside Boundary Condition Object
  NoSun,                                  !- Sun Exposure
  NoWind,                                 !- Wind Exposure
  ,                                       !- View Factor to Ground
  ,                                       !- Number of Vertices
  7.9, 0, 3.2,                            !- X,Y,Z Vertex 1 {m}
  7.9, 0, 0,                              !- X,Y,Z Vertex 2 {m}
  5.05, 0, 0,                             !- X,Y,Z Vertex 3 {m}
  5.05, 0, 3.2;                           !- X,Y,Z Vertex 4 {m}

OS:Surface,
  {62848bd5-d3e2-46c1-9062-078cc81a1b4f}, !- Handle
  0.01-Lobby_Wall_Outdoors_2,             !- Name
  Wall,                                   !- Surface Type
  ,                                       !- Construction Name
  {b7855f66-1614-4493-adb8-946f184a6319}, !- Space Name
  Outdoors,                               !- Outside Boundary Condition
  ,                                       !- Outside Boundary Condition Object
  SunExposed,                             !- Sun Exposure
  WindExposed,                            !- Wind Exposure
  ,                                       !- View Factor to Ground
  ,                                       !- Number of Vertices
  7.9, -2.055, 3.2,                       !- X,Y,Z Vertex 1 {m}
  7.9, -2.055, 0,                         !- X,Y,Z Vertex 2 {m}
  7.9, 0, 0,                              !- X,Y,Z Vertex 3 {m}
  7.9, 0, 3.2;                            !- X,Y,Z Vertex 4 {m}

OS:Surface,
  {54e73f0e-4303-4f29-a315-e770d0090b2f}, !- Handle
  0.01-Lobby_Wall_Outdoors_1,             !- Name
  Wall,                                   !- Surface Type
  ,                                       !- Construction Name
  {b7855f66-1614-4493-adb8-946f184a6319}, !- Space Name
  Outdoors,                               !- Outside Boundary Condition
  ,                                       !- Outside Boundary Condition Object
  SunExposed,                             !- Sun Exposure
  WindExposed,                            !- Wind Exposure
  ,                                       !- View Factor to Ground
  ,                                       !- Number of Vertices
  5.05, -9.955, 3.2,                      !- X,Y,Z Vertex 1 {m}
  5.05, -9.955, 0,                        !- X,Y,Z Vertex 2 {m}
  12.7, -9.955, 0,                        !- X,Y,Z Vertex 3 {m}
  12.7, -9.955, 3.2;                      !- X,Y,Z Vertex 4 {m}

OS:Surface,
  {bace9bde-8608-4392-ba06-312d12013163}, !- Handle
  0.01-Lobby_Wall_Outdoors_4,             !- Name
  Wall,                                   !- Surface Type
  ,                                       !- Construction Name
  {b7855f66-1614-4493-adb8-946f184a6319}, !- Space Name
  Outdoors,                               !- Outside Boundary Condition
  ,                                       !- Outside Boundary Condition Object
  SunExposed,                             !- Sun Exposure
  WindExposed,                            !- Wind Exposure
  ,                                       !- View Factor to Ground
  ,                                       !- Number of Vertices
  0, 0, 3.2,                              !- X,Y,Z Vertex 1 {m}
  0, 0, 0,                                !- X,Y,Z Vertex 2 {m}
  0, -4.75500000000001, 0,                !- X,Y,Z Vertex 3 {m}
  0, -4.75500000000001, 3.2;              !- X,Y,Z Vertex 4 {m}

OS:Surface,
  {aa2aca33-f8c9-4663-bd8a-315dcec46327}, !- Handle
  0.01-Lobby_RoofCeiling_1.09-Office_1,   !- Name
  RoofCeiling,                            !- Surface Type
  ,                                       !- Construction Name
  {b7855f66-1614-4493-adb8-946f184a6319}, !- Space Name
  Surface,                                !- Outside Boundary Condition
  {a03c7c7e-69e3-4502-97c6-13b91c90aa70}, !- Outside Boundary Condition Object
  NoSun,                                  !- Sun Exposure
  NoWind,                                 !- Wind Exposure
  ,                                       !- View Factor to Ground
  ,                                       !- Number of Vertices
  7.6, -9.955, 3.2,                       !- X,Y,Z Vertex 1 {m}
  7.6, -4.755, 3.2,                       !- X,Y,Z Vertex 2 {m}
  5.05, -4.755, 3.2,                      !- X,Y,Z Vertex 3 {m}
  5.05, -9.955, 3.2;                      !- X,Y,Z Vertex 4 {m}

OS:Space,
  {b420306c-c841-48f7-b1b2-bc868f34c06b}, !- Handle
  0.11-Office,                            !- Name
  {3ad48622-aad8-401a-b67b-8e33bb68a931}, !- Space Type Name
  ,                                       !- Default Construction Set Name
  ,                                       !- Default Schedule Set Name
  -0,                                     !- Direction of Relative North {deg}
  0,                                      !- X Origin {m}
  9.955,                                  !- Y Origin {m}
  0,                                      !- Z Origin {m}
  {12a60144-f919-41a7-bb6a-f998912401f4}, !- Building Story Name
  {5e20c13a-0924-482e-bbf6-fe168901d2bd}, !- Thermal Zone Name
  ,                                       !- Part of Total Floor Area
  {e89139e4-7834-4712-9377-df15daa28c66}, !- Design Specification Outdoor Air Object Name
  ,                                       !- Building Unit Name
  30.8,                                   !- Volume {m3}
  2.8,                                    !- Ceiling Height {m}
  11;                                     !- Floor Area {m2}

OS:Surface,
  {427e98a9-d01d-42cc-a701-cdbe7928c1d1}, !- Handle
  0.11-Office_Floor_Ground_1,             !- Name
  Floor,                                  !- Surface Type
  ,                                       !- Construction Name
  {b420306c-c841-48f7-b1b2-bc868f34c06b}, !- Space Name
  Ground,                                 !- Outside Boundary Condition
  ,                                       !- Outside Boundary Condition Object
  NoSun,                                  !- Sun Exposure
  NoWind,                                 !- Wind Exposure
  ,                                       !- View Factor to Ground
  ,                                       !- Number of Vertices
  5.05, 2.55, 0,                          !- X,Y,Z Vertex 1 {m}
  5.05, 0, 0,                             !- X,Y,Z Vertex 2 {m}
  0, 0, 0,                                !- X,Y,Z Vertex 3 {m}
  0, 2.55, 0;                             !- X,Y,Z Vertex 4 {m}

OS:Surface,
  {9ecbd7fe-7cd4-4aee-aaa0-2f685b8a9411}, !- Handle
  0.11-Office_Wall_Outdoors_1,            !- Name
  Wall,                                   !- Surface Type
  ,                                       !- Construction Name
  {b420306c-c841-48f7-b1b2-bc868f34c06b}, !- Space Name
  Outdoors,                               !- Outside Boundary Condition
  ,                                       !- Outside Boundary Condition Object
  SunExposed,                             !- Sun Exposure
  WindExposed,                            !- Wind Exposure
  ,                                       !- View Factor to Ground
  ,                                       !- Number of Vertices
  0, 2.55, 3.2,                           !- X,Y,Z Vertex 1 {m}
  0, 2.55, 0,                             !- X,Y,Z Vertex 2 {m}
  0, 0, 0,                                !- X,Y,Z Vertex 3 {m}
  0, 0, 3.2;                              !- X,Y,Z Vertex 4 {m}

OS:Surface,
  {9b1bf4c4-48a2-44f6-8b63-7061a3ad6a35}, !- Handle
  0.11-Office_Wall_0.10-Office_1,         !- Name
  Wall,                                   !- Surface Type
  ,                                       !- Construction Name
  {b420306c-c841-48f7-b1b2-bc868f34c06b}, !- Space Name
  Surface,                                !- Outside Boundary Condition
  {ec22086e-891b-4879-8868-7fab784e4716}, !- Outside Boundary Condition Object
  NoSun,                                  !- Sun Exposure
  NoWind,                                 !- Wind Exposure
  ,                                       !- View Factor to Ground
  ,                                       !- Number of Vertices
  5.05, 2.55, 3.2,                        !- X,Y,Z Vertex 1 {m}
  5.05, 2.55, 0,                          !- X,Y,Z Vertex 2 {m}
  0, 2.55, 0,                             !- X,Y,Z Vertex 3 {m}
  0, 2.55, 3.2;                           !- X,Y,Z Vertex 4 {m}

OS:Surface,
  {9340261b-35dc-4af5-ac87-744724279064}, !- Handle
  0.11-Office_Wall_0.02-Circulations_1,   !- Name
  Wall,                                   !- Surface Type
  ,                                       !- Construction Name
  {b420306c-c841-48f7-b1b2-bc868f34c06b}, !- Space Name
  Surface,                                !- Outside Boundary Condition
  {4d12d6c7-e79e-4d8e-9b05-4431492b2143}, !- Outside Boundary Condition Object
  NoSun,                                  !- Sun Exposure
  NoWind,                                 !- Wind Exposure
  ,                                       !- View Factor to Ground
  ,                                       !- Number of Vertices
  5.05, 0, 3.2,                           !- X,Y,Z Vertex 1 {m}
  5.05, 0, 0,                             !- X,Y,Z Vertex 2 {m}
  5.05, 2.55, 0,                          !- X,Y,Z Vertex 3 {m}
  5.05, 2.55, 3.2;                        !- X,Y,Z Vertex 4 {m}

OS:Surface,
  {c48d5058-241d-48a3-b464-55ba8ca613f0}, !- Handle
  0.11-Office_Wall_0.01-Lobby_1,          !- Name
  Wall,                                   !- Surface Type
  ,                                       !- Construction Name
  {b420306c-c841-48f7-b1b2-bc868f34c06b}, !- Space Name
  Surface,                                !- Outside Boundary Condition
  {896622a0-6800-4ea2-a340-8188735b3ed5}, !- Outside Boundary Condition Object
  NoSun,                                  !- Sun Exposure
  NoWind,                                 !- Wind Exposure
  ,                                       !- View Factor to Ground
  ,                                       !- Number of Vertices
  0, 0, 3.2,                              !- X,Y,Z Vertex 1 {m}
  0, 0, 0,                                !- X,Y,Z Vertex 2 {m}
  5.05, 0, 0,                             !- X,Y,Z Vertex 3 {m}
  5.05, 0, 3.2;                           !- X,Y,Z Vertex 4 {m}

OS:Surface,
  {0b73fecd-2617-4b8c-a144-6e6a7aec220a}, !- Handle
  0.11-Office_RoofCeiling_1.12-Office_1,  !- Name
  RoofCeiling,                            !- Surface Type
  ,                                       !- Construction Name
  {b420306c-c841-48f7-b1b2-bc868f34c06b}, !- Space Name
  Surface,                                !- Outside Boundary Condition
  {035778d2-32fa-40ef-baa0-cd3c4c9fccc4}, !- Outside Boundary Condition Object
  NoSun,                                  !- Sun Exposure
  NoWind,                                 !- Wind Exposure
  ,                                       !- View Factor to Ground
  ,                                       !- Number of Vertices
  5.05, 0, 3.2,                           !- X,Y,Z Vertex 1 {m}
  5.05, 2.55, 3.2,                        !- X,Y,Z Vertex 2 {m}
  0, 2.55, 3.2,                           !- X,Y,Z Vertex 3 {m}
  0, 0, 3.2;                              !- X,Y,Z Vertex 4 {m}

OS:Space,
  {c0ecbe77-1cc7-4c9b-9042-ba368003abbe}, !- Handle
  0.02-Circulations,                      !- Name
  {97f10682-0378-45a7-813f-9f5d6dfe19fc}, !- Space Type Name
  ,                                       !- Default Construction Set Name
  ,                                       !- Default Schedule Set Name
  -0,                                     !- Direction of Relative North {deg}
  7.9,                                    !- X Origin {m}
  20.005,                                 !- Y Origin {m}
  0,                                      !- Z Origin {m}
  {12a60144-f919-41a7-bb6a-f998912401f4}, !- Building Story Name
  {534c485f-49a0-4794-9720-ad5aacc5b790}, !- Thermal Zone Name
  ,                                       !- Part of Total Floor Area
  {12dc76c0-1975-42d3-9bfc-e1489d3f9613}, !- Design Specification Outdoor Air Object Name
  ,                                       !- Building Unit Name
  151.2,                                  !- Volume {m3}
  2.8,                                    !- Ceiling Height {m}
  54;                                     !- Floor Area {m2}

OS:Surface,
  {8cdaa773-eb3e-4303-9905-15956c60851d}, !- Handle
  0.02-Circulations_Floor_Ground_1,       !- Name
  Floor,                                  !- Surface Type
  ,                                       !- Construction Name
  {c0ecbe77-1cc7-4c9b-9042-ba368003abbe}, !- Space Name
  Ground,                                 !- Outside Boundary Condition
  ,                                       !- Outside Boundary Condition Object
  NoSun,                                  !- Sun Exposure
  NoWind,                                 !- Wind Exposure
  ,                                       !- View Factor to Ground
  ,                                       !- Number of Vertices
  -0.300000000000005, 5.3, 0,             !- X,Y,Z Vertex 1 {m}
  -0.300000000000005, 2.7, 0,             !- X,Y,Z Vertex 2 {m}
  7.35, 2.7, 0,                           !- X,Y,Z Vertex 3 {m}
  7.35, 0, 0,                             !- X,Y,Z Vertex 4 {m}
  0, 0, 0,                                !- X,Y,Z Vertex 5 {m}